/*--------------------------------*- C++ -*----------------------------------*\
| =========                 |                                                 |
| \\      /  F ield         | OpenFOAM: The Open Source CFD Toolbox           |
|  \\    /   O peration     | Version:  2312                                  |
|   \\  /    A nd           | Website:  www.openfoam.com                      |
|    \\/     M anipulation  |                                                 |
\*---------------------------------------------------------------------------*/
FoamFile
{
    version     2.0;
    format      ascii;
    arch        "LSB;label=32;scalar=64";
    class       extendedFeatureEdgeMesh;
    location    "constant/extendedFeatureEdgeMesh";
    object      modeldomain.extendedFeatureEdgeMesh;
}
// * * * * * * * * * * * * * * * * * * * * * * * * * * * * * * * * * * * * * //

// points

323
(
(-0.058951035 -0.19111456 0)
(-0.073068202 -0.18617475 0)
(-0.029808452 -0.19776617 0)
(-0.044504188 -0.19498558 0)
(0.12469796 -0.1563663 0)
(0.11266401 -0.16524775 0)
(0.058951035 0.19111456 0)
(0.073068202 0.18617475 0)
(0.19944076 0.014946018 0)
(0.2 -4.8985871e-17 0)
(-0.086776748 -0.18019377 0)
(-0.014946018 -0.19944076 0)
(0.18617475 -0.073068202 0)
(0.18019377 -0.086776748 0)
(0.1 -0.17320508 0)
(0.19944076 -0.014946018 0)
(0.19776617 -0.029808452 0)
(-0.1563663 0.12469796 0)
(-0.14661038 0.13603455 0)
(-0.18019377 0.086776748 0)
(-0.17320508 0.1 0)
(0.17320508 -0.1 0)
(-0.1 -0.17320508 0)
(0.13603455 -0.14661038 0)
(0.086776748 0.18019377 0)
(-0.2 5.5739998e-16 0)
(-0.19944076 0.014946018 0)
(-0.044504188 0.19498558 0)
(-0.029808452 0.19776617 0)
(0.16524775 -0.11266401 0)
(0.1563663 -0.12469796 0)
(0.19776617 0.029808452 0)
(0.19498558 -0.044504188 0)
(0.19111456 -0.058951035 0)
(0.029808452 0.19776617 0)
(0.044504188 0.19498558 0)
(0.029808452 -0.19776617 0)
(0.014946018 -0.19944076 0)
(-0.13603455 0.14661038 0)
(-0.12469796 0.1563663 0)
(0.16524775 0.11266401 0)
(0.17320508 0.1 0)
(2.3429106e-16 0.2 0)
(0.014946018 0.19944076 0)
(-0.073068202 0.18617475 0)
(-0.058951035 0.19111456 0)
(-0.12469796 -0.1563663 0)
(-0.13603455 -0.14661038 0)
(0.073068202 -0.18617475 0)
(0.058951035 -0.19111456 0)
(-0.1 0.17320508 0)
(-0.086776748 0.18019377 0)
(-0.18617475 -0.073068202 0)
(-0.19111456 -0.058951035 0)
(0.13603455 0.14661038 0)
(0.14661038 0.13603455 0)
(-0.19776617 -0.029808452 0)
(-0.19944076 -0.014946018 0)
(0.18617475 0.073068202 0)
(0.19111456 0.058951035 0)
(-0.14661038 -0.13603455 0)
(-0.1563663 -0.12469796 0)
(0.11266401 0.16524775 0)
(0.12469796 0.1563663 0)
(-0.19498558 0.044504188 0)
(-0.19111456 0.058951035 0)
(-1.8130963e-15 -0.2 0)
(-0.16524775 -0.11266401 0)
(-0.17320508 -0.1 0)
(-0.16524775 0.11266401 0)
(-0.18617475 0.073068202 0)
(0.18019377 0.086776748 0)
(0.1563663 0.12469796 0)
(0.044504188 -0.19498558 0)
(-0.11266401 -0.16524775 0)
(-0.18019377 -0.086776748 0)
(-0.19776617 0.029808452 0)
(-0.19498558 -0.044504188 0)
(0.14661038 -0.13603455 0)
(0.086776748 -0.18019377 0)
(-0.014946018 0.19944076 0)
(0.1 0.17320508 0)
(0.19498558 0.044504188 0)
(-0.11266401 0.16524775 0)
(-0.0053465604 -0.001801466 0.075000003)
(-0.0056088227 -0.00060999626 0.075000003)
(-0.004834299 -0.0029087011 0.075000003)
(-0.0056088227 0.00060999626 0.075000003)
(-0.0040959911 0.0038799287 0.075000003)
(-0.0031661589 0.0046697352 0.075000003)
(0.0055099917 0.0012128408 0.075000003)
(0.0056418958 -1.3818659e-18 0.075000003)
(0.003652486 0.0043000388 0.075000003)
(0.004491474 0.0034143298 0.075000003)
(0.00030544607 0.0056336215 0.075000003)
(0.001509367 0.0054362486 0.075000003)
(-0.0020882809 0.0052411901 0.075000003)
(-0.00091275718 0.0055675725 0.075000003)
(-0.0053465604 0.001801466 0.075000003)
(-0.004834299 0.0029087011 0.075000003)
(-0.0020882809 -0.0052411901 0.075000003)
(-0.0031661589 -0.0046697352 0.075000003)
(0.004491474 -0.0034143298 0.075000003)
(0.003652486 -0.0043000388 0.075000003)
(-0.0040959911 -0.0038799287 0.075000003)
(0.0055099917 -0.0012128408 0.075000003)
(0.005120446 -0.0023689705 0.075000003)
(0.0026427116 -0.0049846829 0.075000003)
(0.001509367 -0.0054362486 0.075000003)
(0.00030544607 -0.0056336215 0.075000003)
(-0.00091275718 -0.0055675725 0.075000003)
(0.005120446 0.0023689705 0.075000003)
(0.0026427116 0.0049846829 0.075000003)
(0.049008623 -0.0099073071 0.25)
(0.049751539 -0.0049783923 0.25)
(-0.0012465346 -0.049984459 0.25)
(0.0037365046 -0.049860191 0.25)
(0.043911077 0.023912698 0.25)
(0.041311938 0.028166004 0.25)
(0.027127312 0.042001296 0.25)
(0.022810534 0.04449359 0.25)
(0.0086824093 0.049240388 0.25)
(0.0037365046 0.049860191 0.25)
(-0.025 0.043301269 0.25)
(-0.029187184 0.040596899 0.25)
(-0.033084292 0.03748906 0.25)
(-0.036652595 0.034008637 0.25)
(-0.045048442 0.021694187 0.25)
(-0.046984632 0.017101007 0.25)
(-0.049937844 0.0024922942 0.25)
(-0.049937844 -0.0024922942 0.25)
(-0.045048442 -0.021694187 0.25)
(-0.042664543 -0.026071761 0.25)
(-0.049441542 -0.0074521131 0.25)
(-0.048453864 -0.01233787 0.25)
(-0.036652595 -0.034008637 0.25)
(-0.033084292 -0.03748906 0.25)
(-0.029187184 -0.040596899 0.25)
(-0.025 -0.043301269 0.25)
(0.03830222 0.03213938 0.25)
(0.034911841 0.035793342 0.25)
(0.0086824093 -0.049240388 0.25)
(-0.011126047 0.048746396 0.25)
(-0.015924333 0.047396366 0.25)
(0.03117449 0.039091576 0.25)
(-0.049441542 0.0074521131 0.25)
(0.022810534 -0.04449359 0.25)
(0.027127312 -0.042001296 0.25)
(0.046073809 -0.01942174 0.25)
(0.04777864 -0.014737759 0.25)
(-0.042664543 0.026071761 0.25)
(0.013542023 0.048131213 0.25)
(-0.020564355 0.045575291 0.25)
(-0.048453864 0.01233787 0.25)
(-0.039856624 -0.03019022 0.25)
(-0.011126047 -0.048746396 0.25)
(-0.0062171854 -0.04961196 0.25)
(-0.0012465346 0.049984459 0.25)
(-0.0062171854 0.04961196 0.25)
(0.041311938 -0.028166004 0.25)
(0.043911077 -0.023912698 0.25)
(0.046073809 0.01942174 0.25)
(-0.020564355 -0.045575291 0.25)
(-0.015924333 -0.047396366 0.25)
(0.01826705 0.046543688 0.25)
(-0.046984632 -0.017101007 0.25)
(0.013542023 -0.048131213 0.25)
(0.04777864 0.014737759 0.25)
(0.03830222 -0.03213938 0.25)
(0.049008623 0.0099073071 0.25)
(0.01826705 -0.046543688 0.25)
(0.03117449 -0.039091576 0.25)
(0.034911841 -0.035793342 0.25)
(-0.039856624 0.03019022 0.25)
(0.049751539 0.0049783923 0.25)
(0.050000001 -1.2246468e-17 0.25)
(-0.13603455 0.14661038 0.25)
(-0.14661038 0.13603455 0.25)
(0.17320508 0.1 0.25)
(0.16524775 0.11266401 0.25)
(-0.014946018 -0.19944076 0.25)
(-1.8130963e-15 -0.2 0.25)
(0.18617475 0.073068202 0.25)
(0.18019377 0.086776748 0.25)
(-0.044504188 -0.19498558 0.25)
(-0.029808452 -0.19776617 0.25)
(-0.19111456 0.058951035 0.25)
(-0.19498558 0.044504188 0.25)
(0.1 -0.17320508 0.25)
(0.11266401 -0.16524775 0.25)
(0.16524775 -0.11266401 0.25)
(0.17320508 -0.1 0.25)
(-0.058951035 -0.19111456 0.25)
(0.19944076 -0.014946018 0.25)
(0.2 -4.8985871e-17 0.25)
(-0.1 0.17320508 0.25)
(-0.11266401 0.16524775 0.25)
(0.12469796 -0.1563663 0.25)
(0.13603455 -0.14661038 0.25)
(0.014946018 -0.19944076 0.25)
(-0.1563663 0.12469796 0.25)
(0.19498558 -0.044504188 0.25)
(0.19776617 -0.029808452 0.25)
(-0.16524775 -0.11266401 0.25)
(-0.1563663 -0.12469796 0.25)
(0.19944076 0.014946018 0.25)
(0.19776617 0.029808452 0.25)
(0.029808452 -0.19776617 0.25)
(0.044504188 -0.19498558 0.25)
(0.19498558 0.044504188 0.25)
(0.19111456 0.058951035 0.25)
(0.073068202 0.18617475 0.25)
(0.058951035 0.19111456 0.25)
(0.044504188 0.19498558 0.25)
(0.029808452 0.19776617 0.25)
(-0.073068202 0.18617475 0.25)
(-0.086776748 0.18019377 0.25)
(-0.12469796 0.1563663 0.25)
(0.1563663 0.12469796 0.25)
(-0.014946018 0.19944076 0.25)
(-0.029808452 0.19776617 0.25)
(-0.19944076 0.014946018 0.25)
(-0.2 5.5739998e-16 0.25)
(0.18617475 -0.073068202 0.25)
(0.19111456 -0.058951035 0.25)
(0.014946018 0.19944076 0.25)
(2.3429106e-16 0.2 0.25)
(0.058951035 -0.19111456 0.25)
(0.073068202 -0.18617475 0.25)
(0.14661038 0.13603455 0.25)
(0.13603455 0.14661038 0.25)
(-0.19944076 -0.014946018 0.25)
(-0.19776617 -0.029808452 0.25)
(0.1 0.17320508 0.25)
(0.086776748 0.18019377 0.25)
(-0.19776617 0.029808452 0.25)
(0.12469796 0.1563663 0.25)
(0.11266401 0.16524775 0.25)
(-0.14661038 -0.13603455 0.25)
(-0.13603455 -0.14661038 0.25)
(-0.18019377 0.086776748 0.25)
(-0.18617475 0.073068202 0.25)
(-0.18019377 -0.086776748 0.25)
(-0.17320508 -0.1 0.25)
(-0.19498558 -0.044504188 0.25)
(-0.19111456 -0.058951035 0.25)
(0.14661038 -0.13603455 0.25)
(0.1563663 -0.12469796 0.25)
(-0.044504188 0.19498558 0.25)
(-0.058951035 0.19111456 0.25)
(-0.16524775 0.11266401 0.25)
(-0.17320508 0.1 0.25)
(-0.086776748 -0.18019377 0.25)
(-0.073068202 -0.18617475 0.25)
(-0.11266401 -0.16524775 0.25)
(-0.1 -0.17320508 0.25)
(0.086776748 -0.18019377 0.25)
(0.18019377 -0.086776748 0.25)
(-0.12469796 -0.1563663 0.25)
(-0.18617475 -0.073068202 0.25)
(-0.025 -0.043301269 0.125)
(-0.029187184 -0.040596899 0.125)
(0.049751539 -0.0049783923 0.125)
(0.049008623 -0.0099073071 0.125)
(0.049008623 0.0099073071 0.125)
(0.049751539 0.0049783923 0.125)
(-0.011126047 -0.048746396 0.125)
(-0.015924333 -0.047396366 0.125)
(-0.0062171854 0.04961196 0.125)
(-0.0012465346 0.049984459 0.125)
(0.0037365046 0.049860191 0.125)
(0.0086824093 0.049240388 0.125)
(0.022810534 0.04449359 0.125)
(0.027127312 0.042001296 0.125)
(0.027127312 -0.042001296 0.125)
(0.022810534 -0.04449359 0.125)
(-0.025 0.043301269 0.125)
(-0.020564355 0.045575291 0.125)
(-0.020564355 -0.045575291 0.125)
(-0.048453864 -0.01233787 0.125)
(-0.049441542 -0.0074521131 0.125)
(0.0037365046 -0.049860191 0.125)
(-0.0012465346 -0.049984459 0.125)
(-0.042664543 0.026071761 0.125)
(-0.039856624 0.03019022 0.125)
(0.046073809 -0.01942174 0.125)
(0.043911077 -0.023912698 0.125)
(0.034911841 -0.035793342 0.125)
(0.03117449 -0.039091576 0.125)
(0.03117449 0.039091576 0.125)
(0.034911841 0.035793342 0.125)
(-0.011126047 0.048746396 0.125)
(-0.0062171854 -0.04961196 0.125)
(-0.049937844 -0.0024922942 0.125)
(-0.049937844 0.0024922942 0.125)
(0.013542023 0.048131213 0.125)
(-0.046984632 0.017101007 0.125)
(-0.045048442 0.021694187 0.125)
(-0.036652595 0.034008637 0.125)
(-0.033084292 0.03748906 0.125)
(0.013542023 -0.048131213 0.125)
(0.0086824093 -0.049240388 0.125)
(-0.045048442 -0.021694187 0.125)
(-0.046984632 -0.017101007 0.125)
(-0.033084292 -0.03748906 0.125)
(-0.036652595 -0.034008637 0.125)
(0.043911077 0.023912698 0.125)
(0.046073809 0.01942174 0.125)
(0.041311938 -0.028166004 0.125)
(0.03830222 -0.03213938 0.125)
(-0.039856624 -0.03019022 0.125)
(-0.042664543 -0.026071761 0.125)
(0.03830222 0.03213938 0.125)
(0.041311938 0.028166004 0.125)
(0.04777864 0.014737759 0.125)
(0.04777864 -0.014737759 0.125)
(-0.049441542 0.0074521131 0.125)
(-0.048453864 0.01233787 0.125)
(-0.015924333 0.047396366 0.125)
(0.01826705 -0.046543688 0.125)
(0.01826705 0.046543688 0.125)
(0.050000001 -1.2246468e-17 0.125)
(-0.029187184 0.040596899 0.125)
)

// edges

323
(
(0 1)
(2 3)
(4 5)
(6 7)
(8 9)
(1 10)
(11 2)
(12 13)
(5 14)
(15 16)
(17 18)
(3 0)
(19 20)
(13 21)
(10 22)
(23 4)
(7 24)
(25 26)
(27 28)
(29 30)
(31 8)
(32 33)
(34 35)
(36 37)
(38 39)
(40 41)
(42 43)
(44 45)
(46 47)
(48 49)
(50 51)
(52 53)
(54 55)
(56 57)
(58 59)
(60 61)
(62 63)
(64 65)
(66 11)
(67 68)
(69 17)
(65 70)
(61 67)
(41 71)
(72 40)
(18 38)
(37 66)
(43 34)
(73 36)
(22 74)
(68 75)
(74 46)
(47 60)
(49 73)
(70 19)
(57 25)
(76 64)
(53 77)
(78 23)
(75 52)
(14 79)
(33 12)
(80 42)
(24 81)
(9 15)
(30 78)
(77 56)
(20 69)
(45 27)
(51 44)
(63 54)
(79 48)
(59 82)
(39 83)
(55 72)
(71 58)
(28 80)
(82 31)
(26 76)
(16 32)
(81 62)
(21 29)
(83 50)
(35 6)
(84 85)
(86 84)
(85 87)
(88 89)
(90 91)
(92 93)
(94 95)
(96 97)
(98 99)
(100 101)
(102 103)
(104 86)
(105 106)
(107 108)
(109 110)
(111 90)
(89 96)
(99 88)
(112 92)
(87 98)
(101 104)
(103 107)
(97 94)
(91 105)
(106 102)
(110 100)
(93 111)
(108 109)
(95 112)
(113 114)
(115 116)
(117 118)
(119 120)
(121 122)
(123 124)
(125 126)
(127 128)
(129 130)
(131 132)
(133 134)
(135 136)
(137 138)
(139 140)
(124 125)
(116 141)
(142 143)
(144 119)
(145 129)
(136 137)
(146 147)
(148 149)
(150 127)
(151 121)
(152 123)
(128 153)
(154 135)
(155 156)
(130 133)
(157 158)
(159 160)
(161 117)
(162 163)
(120 164)
(165 131)
(132 154)
(143 152)
(153 145)
(164 151)
(141 166)
(167 161)
(168 159)
(169 167)
(166 170)
(163 155)
(171 172)
(126 173)
(172 168)
(158 142)
(138 162)
(173 150)
(122 157)
(174 169)
(114 175)
(175 174)
(140 144)
(170 146)
(134 165)
(160 148)
(149 113)
(156 115)
(147 171)
(118 139)
(176 177)
(178 179)
(180 181)
(182 183)
(184 185)
(186 187)
(188 189)
(190 191)
(192 184)
(193 194)
(195 196)
(197 198)
(181 199)
(177 200)
(201 202)
(203 204)
(205 206)
(207 208)
(209 210)
(211 212)
(213 214)
(215 216)
(217 176)
(179 218)
(219 220)
(221 222)
(223 224)
(225 226)
(227 228)
(229 230)
(231 232)
(233 234)
(187 235)
(236 237)
(183 178)
(238 239)
(240 241)
(242 243)
(244 245)
(246 247)
(248 249)
(250 251)
(185 180)
(252 253)
(254 255)
(256 188)
(235 221)
(191 257)
(249 215)
(232 244)
(200 250)
(255 252)
(212 213)
(189 197)
(218 229)
(247 190)
(216 195)
(196 217)
(206 209)
(222 231)
(204 238)
(199 207)
(258 254)
(220 248)
(210 182)
(253 192)
(228 256)
(257 223)
(251 240)
(194 205)
(226 219)
(237 233)
(198 246)
(259 242)
(214 225)
(208 227)
(243 203)
(234 211)
(239 258)
(245 259)
(202 193)
(241 186)
(230 236)
(224 201)
(260 261)
(262 263)
(264 265)
(266 267)
(268 269)
(270 271)
(272 273)
(274 275)
(276 277)
(278 260)
(279 280)
(281 282)
(283 284)
(269 270)
(285 286)
(287 288)
(289 290)
(291 268)
(292 266)
(293 294)
(271 295)
(296 297)
(298 299)
(300 301)
(302 303)
(304 305)
(306 307)
(308 309)
(310 311)
(312 313)
(314 264)
(263 315)
(316 317)
(286 308)
(301 281)
(313 306)
(284 298)
(303 279)
(311 302)
(280 293)
(309 287)
(315 285)
(290 312)
(297 283)
(317 296)
(305 310)
(282 292)
(261 304)
(318 291)
(319 300)
(267 278)
(295 320)
(277 318)
(275 319)
(273 289)
(320 272)
(307 314)
(294 316)
(265 321)
(299 322)
(321 262)
(322 276)
(288 274)
)

// concaveStart mixedStart nonFeatureStart
0 0 0
// internalStart flatStart openStart multipleStart
323 323 323 323
// normals

646
(
(0 0 -1)
(-0.33025976 -0.94382832 -0.010798164)
(0 0 -1)
(-0.18590098 -0.98250915 -0.010797485)
(-0 0 -1)
(0.59378525 -0.8045511 -0.01079774)
(0 0 -1)
(0.33025976 0.94382832 -0.010798164)
(0 -0 -1)
(0.99920732 0.037387702 -0.013670522)
(0 0 -1)
(-0.39986903 -0.9165087 -0.010796025)
(0 0 -1)
(-0.11195784 -0.99365429 -0.010797955)
(-0 0 -1)
(0.91651121 -0.39987013 -0.010539482)
(-0 0 -1)
(0.5319968 -0.84666829 -0.011498262)
(0 0 -1)
(0.99366256 -0.11195877 -0.0099974864)
(0 0 -1)
(-0.75793124 0.65225271 -0.010326699)
(0 0 -1)
(-0.25880412 -0.96586947 -0.010797727)
(0 0 -1)
(-0.88406398 0.46724118 -0.010796007)
(0 0 -1)
(0.88404756 -0.46723251 -0.012397444)
(0 0 -1)
(-0.46724117 -0.88406396 -0.010798113)
(-0 0 -1)
(0.6522524 -0.75793088 -0.010372053)
(0 0 -1)
(0.39982948 0.91641805 -0.017729618)
(0 0 -1)
(-0.99925328 0.037389422 -0.0097425685)
(0 0 -1)
(-0.18590346 0.98252224 -0.0094848288)
(-0 0 -1)
(0.80455378 -0.59378723 -0.010485716)
(0 -0 -1)
(0.99365429 0.11195784 -0.010797955)
(0 0 -1)
(0.9658619 -0.25880209 -0.011500606)
(0 0 -1)
(0.18590234 0.98251633 -0.010098309)
(-0 0 -1)
(0.11195784 -0.99365429 -0.010797955)
(0 0 -1)
(-0.65224947 0.75792748 -0.010796753)
(0 -0 -1)
(0.84669398 0.53201295 -0.008456906)
(0 0 -1)
(0.037389013 0.99924235 -0.010806607)
(0 0 -1)
(-0.33023028 0.94374407 -0.017178359)
(0 0 -1)
(-0.65224948 -0.75792748 -0.010795624)
(-0 0 -1)
(0.3302616 -0.94383358 -0.010268676)
(0 0 -1)
(-0.46724489 0.88407099 -0.01003523)
(0 0 -1)
(-0.94382832 -0.33025976 -0.010798164)
(0 -0 -1)
(0.70707721 0.70707721 -0.009146134)
(0 0 -1)
(-0.99366189 -0.1119587 -0.010065111)
(0 -0 -1)
(0.94385051 0.33026753 -0.0083415855)
(0 0 -1)
(-0.75792748 -0.65224947 -0.010796753)
(0 -0 -1)
(0.59379785 0.80456817 -0.0086120205)
(0 0 -1)
(-0.96582708 0.25879276 -0.014295388)
(0 0 -1)
(-0.037389017 -0.99924245 -0.010797434)
(0 0 -1)
(-0.8466749 -0.53200096 -0.010797831)
(0 0 -1)
(-0.80456555 0.59379592 -0.0089820083)
(0 0 -1)
(-0.94381833 0.33025627 -0.011737358)
(0 0 -1)
(-0.8045511 -0.59378525 -0.01079774)
(0 -0 -1)
(0.88408011 0.46724971 -0.0089486437)
(0 -0 -1)
(0.80455612 0.59378895 -0.010204461)
(0 0 -1)
(-0.70706013 0.70706013 -0.011487004)
(-0 0 -1)
(0.037389017 -0.99924246 -0.010796218)
(0 0 -1)
(0.11195895 0.9936641 -0.0098409463)
(-0 0 -1)
(0.18590098 -0.98250917 -0.010795996)
(0 0 -1)
(-0.53200096 -0.8466749 -0.010797831)
(0 0 -1)
(-0.88406396 -0.46724117 -0.010798113)
(0 0 -1)
(-0.59378525 -0.8045511 -0.01079774)
(0 0 -1)
(-0.70706556 -0.70706556 -0.01079809)
(-0 0 -1)
(0.25880412 -0.96586947 -0.010797727)
(0 0 -1)
(-0.91648732 0.3998597 -0.012775744)
(0 0 -1)
(-0.99925806 -0.037389601 -0.0092385025)
(0 0 -1)
(-0.98252691 0.18590434 -0.0089689942)
(0 0 -1)
(-0.96579943 -0.25878535 -0.016173849)
(-0 0 -1)
(0.70706852 -0.70706852 -0.010403152)
(0 0 -1)
(-0.91651589 -0.39987217 -0.010043474)
(-0 0 -1)
(0.46723743 -0.88405687 -0.011516459)
(0 0 -1)
(0.94383373 -0.33026166 -0.010253315)
(0 0 -1)
(-0.037389117 0.99924513 -0.010546708)
(0 0 -1)
(0.46724586 0.88407283 -0.009825131)
(0 0 -1)
(0.99924302 -0.037389038 -0.010744662)
(-0 0 -1)
(0.75791329 -0.65223727 -0.012409157)
(0 0 -1)
(-0.98252335 -0.18590367 -0.0093639892)
(0 0 -1)
(-0.84668007 0.53200421 -0.010216903)
(0 0 -1)
(-0.25880758 0.96588238 -0.0094793982)
(0 0 -1)
(-0.39986902 0.91650869 -0.010797614)
(0 -0 -1)
(0.65226218 0.75794224 -0.0088097924)
(-0 0 -1)
(0.39987051 -0.91651209 -0.010448401)
(0 -0 -1)
(0.96588529 0.25880836 -0.00915662)
(0 0 -1)
(-0.5937893 0.80455659 -0.010147096)
(0 -0 -1)
(0.75793951 0.65225983 -0.0092096673)
(0 -0 -1)
(0.91651632 0.39987236 -0.0099962063)
(0 0 -1)
(-0.11195992 0.99367273 -0.0089152644)
(0 -0 -1)
(0.98251905 0.18590285 -0.0098209205)
(0 0 -1)
(-0.99366812 0.1119594 -0.0094217296)
(0 0 -1)
(0.98250917 -0.18590098 -0.010795725)
(0 0 -1)
(0.53200508 0.84668146 -0.010055222)
(0 0 -1)
(0.84667891 -0.53200348 -0.010349737)
(0 0 -1)
(-0.53200512 0.84668153 -0.010046385)
(0 0 -1)
(0.25880412 0.96586947 -0.010797727)
(0 0 -1)
(-0.7204262 -0.15857779 -0.67515863)
(0 0 -1)
(-0.66526454 -0.3077841 -0.6802147)
(0 0 -1)
(-0.7349239 0 -0.67814958)
(0 0 -1)
(-0.47458028 0.55871919 -0.68015176)
(0 -0 -1)
(0.72972784 0.079362543 -0.67911624)
(0 -0 -1)
(0.5364795 0.50818032 -0.67375256)
(0 0 -1)
(0.11932201 0.7278319 -0.67529474)
(0 0 -1)
(-0.19651866 0.70779642 -0.67853124)
(0 0 -1)
(-0.66666346 0.3084313 -0.6785499)
(0 0 -1)
(-0.34523652 -0.65118505 -0.67584745)
(-0 0 -1)
(0.53165027 -0.50360583 -0.68097663)
(0 0 -1)
(-0.58452787 -0.44434639 -0.67888398)
(0 0 -1)
(0.69581011 -0.23444585 -0.67888396)
(-0 0 -1)
(0.27177227 -0.68209703 -0.67888399)
(0 0 -1)
(-0.039751182 -0.73316886 -0.67888384)
(0 -0 -1)
(0.69589781 0.2344754 -0.67878386)
(0 0 -1)
(-0.34392693 0.6487149 -0.67888382)
(0 0 -1)
(-0.58698613 0.44621512 -0.67552894)
(0 -0 -1)
(0.41196583 0.60760408 -0.6790445)
(0 0 -1)
(-0.71707919 0.15784106 -0.67888411)
(0 0 -1)
(-0.47501778 -0.55923425 -0.67942267)
(-0 0 -1)
(0.41192159 -0.60753884 -0.67912971)
(0 0 -1)
(-0.039751182 0.73316886 -0.67888384)
(0 0 -1)
(0.73360933 -0.07978468 -0.67487166)
(0 0 -1)
(0.6283159 -0.37804522 -0.67992715)
(0 0 -1)
(-0.19613934 -0.70643022 -0.68006301)
(0 -0 -1)
(0.62748089 0.37754281 -0.68097663)
(-0 0 -1)
(0.11881631 -0.72474727 -0.67869292)
(0 0 -1)
(0.27244138 0.68377638 -0.6769236)
(-0.98878492 0.14903568 -0.0096309684)
(0 0 1)
(-0.024928836 0.99962286 -0.011519402)
(-0 0 1)
(-0.85323077 -0.52139804 -0.011888718)
(0 -0 1)
(-0.49994824 -0.86593565 -0.014394772)
(0 -0 1)
(-0.12433714 -0.99218623 -0.010332461)
(0 0 1)
(0.54250289 -0.83995847 -0.012663891)
(0 0 1)
(0.6981566 -0.71578484 -0.015146651)
(0 0 1)
(0.9213806 -0.38839487 -0.014394566)
(0 0 1)
(0.99992308 0 -0.012403121)
(0 0 1)
(0.87813721 0.47820791 -0.013864845)
(0 0 1)
(0.98007087 0.19812594 -0.014394169)
(0 0 1)
(0.69816437 0.7157928 -0.014393868)
(0 0 1)
(0.54249019 0.8399388 -0.014394745)
(0 0 1)
(-0.7329761 -0.68010199 -0.014398724)
(0 -0 1)
(0.62342436 -0.78174985 -0.014465134)
(0 0 1)
(-0.12433089 0.99213635 -0.014397938)
(-0 0 1)
(0.27081277 -0.96252435 -0.01439844)
(0 0 1)
(-0.58370794 -0.81188906 -0.011008682)
(0 -0 1)
(0.99492364 -0.099556536 -0.014678421)
(0 0 1)
(0.62344798 0.78177947 -0.01155284)
(0 0 1)
(-0.49994821 0.86593561 -0.014398231)
(-0 0 1)
(-0.93959514 0.34198489 -0.014398487)
(0 0 1)
(0.87816059 -0.47822064 -0.011789842)
(0 0 1)
(-0.2224979 -0.97482684 -0.014398221)
(0 0 1)
(0.45616317 -0.88977966 -0.014398371)
(0 0 1)
(0.95549801 -0.29473192 -0.012515623)
(0 0 1)
(0.76593903 0.64269851 -0.016613905)
(0 0 1)
(0.17363409 0.98472896 -0.012651949)
(0 0 1)
(0.99492769 0.099556942 -0.014398304)
(0 0 1)
(0.074721693 -0.9970905 -0.015073059)
(0 0 1)
(-0.85324233 0.52140511 -0.010688516)
(-0 0 1)
(-0.90087543 -0.43383885 -0.014398257)
(0 -0 1)
(0.36530317 0.93077724 -0.014398563)
(0 0 1)
(-0.41124452 -0.91141135 -0.01439793)
(0 -0 1)
(0.92142308 0.38841278 -0.010724988)
(0 0 1)
(0.82616632 0.56327085 -0.013234759)
(0 0 1)
(0.36531725 -0.93081314 -0.011410706)
(0 0 1)
(0.98007082 -0.19812593 -0.014397794)
(0 0 1)
(-0.31846717 -0.94786914 -0.011079381)
(0 0 1)
(-0.2224979 0.97482684 -0.014398221)
(-0 0 1)
(-0.93959514 -0.34198489 -0.014398487)
(0 -0 1)
(-0.79704963 0.60374215 -0.014398113)
(-0 0 1)
(-0.96902065 -0.24674271 -0.010816882)
(0 -0 1)
(-0.31846763 0.94787051 -0.010948547)
(-0 0 1)
(0.27081277 0.96252435 -0.01439844)
(0 0 1)
(-0.66163888 0.74972744 -0.011947812)
(-0 0 1)
(0.76595791 -0.64271435 -0.015058011)
(0 0 1)
(-0.7329761 0.68010199 -0.014398724)
(-0 0 1)
(0.17362806 -0.98469482 -0.015146353)
(0 0 1)
(0.45615865 0.88977085 -0.015070574)
(0 0 1)
(0.82615304 -0.56326179 -0.014398484)
(0 0 1)
(-0.024928034 -0.99959069 -0.014037072)
(0 0 1)
(-0.98872339 -0.1490264 -0.014737646)
(0 -0 1)
(-0.99871418 0.049843899 -0.0092508512)
(0 0 1)
(-0.99866919 -0.049841654 -0.01325383)
(0 -0 1)
(-0.66157684 -0.74965714 -0.018172813)
(0 -0 1)
(-0.41123192 0.91138341 -0.016389018)
(-0 0 1)
(0.95544885 0.29471675 -0.016109996)
(0 0 1)
(-0.90085257 0.43382784 -0.016063849)
(0 0 1)
(-0.96891184 0.24671501 -0.018481288)
(0 0 1)
(0.074717213 0.99703072 -0.018630336)
(0 0 1)
(-0.58361787 0.81176377 -0.020730756)
(-0 0 1)
(-0.79695717 -0.60367211 -0.020958171)
(0 -0 1)
(-0 0 1)
(-0.70706429 0.70706429 0.010962071)
(0 0 1)
(0.84667299 0.53199976 0.011004938)
(0 0 1)
(-0.037388996 -0.9992419 0.010848546)
(0 0 1)
(0.91650869 0.39986902 0.01079761)
(0 0 1)
(-0.18590086 -0.98250851 0.010857809)
(0 0 1)
(-0.96586796 0.25880372 0.010941832)
(0 0 1)
(0.53200089 -0.84667479 0.010809465)
(0 0 1)
(0.846675 -0.53200102 0.010787216)
(0 0 1)
(-0.25880394 -0.96586879 0.010862551)
(0 0 1)
(0.99926012 -0.037389678 0.0090122263)
(-0 0 1)
(-0.53199996 0.84667332 0.010969314)
(0 0 1)
(0.65224946 -0.75792747 0.010797866)
(0 0 1)
(0.037389017 -0.99924245 0.010797429)
(-0 0 1)
(-0.75792748 0.65224947 0.010796748)
(0 0 1)
(0.98250946 -0.18590104 0.010768969)
(0 -0 1)
(-0.80455021 -0.59378459 0.010900142)
(0 0 1)
(0.99365429 0.11195784 0.010797951)
(0 0 1)
(0.18590098 -0.98250916 0.01079748)
(0 0 1)
(0.96586947 0.25880412 0.010797723)
(0 0 1)
(0.33025976 0.94382832 0.010798159)
(0 0 1)
(0.18590059 0.9825071 0.010989614)
(-0 0 1)
(-0.39986902 0.91650869 0.01079761)
(-0 0 1)
(-0.65224829 0.7579261 0.010963273)
(0 0 1)
(0.8045511 0.59378525 0.010797735)
(-0 0 1)
(-0.11195762 0.99365229 0.010982583)
(0 0 1)
(-0.99924099 0.037388962 0.010932015)
(0 0 1)
(0.94382801 -0.33025966 0.010828154)
(0 0 1)
(0.03738894 0.9992404 0.01098596)
(0 0 1)
(0.33025976 -0.94382832 0.010798159)
(0 0 1)
(0.70706556 0.70706556 0.010798086)
(0 -0 1)
(-0.99365291 -0.11195768 0.010925862)
(0 0 1)
(0.46724117 0.88406396 0.010798108)
(0 0 1)
(-0.98250916 0.18590098 0.01079748)
(0 0 1)
(0.59378525 0.8045511 0.010797735)
(0 0 1)
(0.88406195 0.46724011 0.011006193)
(0 -0 1)
(-0.70706556 -0.70706556 0.010798086)
(0 0 1)
(-0.91650869 0.39986902 0.01079761)
(0 -0 1)
(-0.8840629 -0.46724062 0.010908144)
(0 -0 1)
(-0.9658682 -0.25880378 0.01091868)
(0 0 1)
(0.7579276 -0.65224958 0.01078156)
(-0 0 1)
(-0.25880361 0.96586757 0.010978266)
(-0 0 1)
(-0.8466749 0.53200096 0.010797826)
(0 0 1)
(-0.11195784 -0.99365429 0.010797951)
(0 0 1)
(-0.39986871 -0.91650796 0.010871257)
(0 0 1)
(-0.53200096 -0.8466749 0.010797826)
(0 0 1)
(0.46724117 -0.88406396 0.010798108)
(0 0 1)
(-0.9936528 0.11195767 0.010935778)
(0 0 1)
(0.88406394 -0.46724116 0.010799959)
(-0 0 1)
(-0.33025912 0.94382648 0.010976554)
(0 -0 1)
(-0.98250916 -0.18590098 0.01079748)
(-0 0 1)
(-0.80454972 0.59378423 0.010956367)
(0 0 1)
(-0.46724078 -0.88406321 0.010876067)
(0 0 1)
(0.25880357 0.96586743 0.010991559)
(0 0 1)
(0.59378534 -0.80455123 0.010783613)
(0 0 1)
(0.75792578 0.65224801 0.011001724)
(0 0 1)
(0.80455119 -0.59378532 0.010787524)
(-0 0 1)
(-0.46724029 0.88406229 0.01097196)
(-0 0 1)
(-0.59378525 0.8045511 0.010797735)
(0 0 1)
(0.98250689 0.18590055 0.011008716)
(0 -0 1)
(-0.99924245 -0.037389017 0.010797429)
(0 -0 1)
(-0.75792667 -0.65224877 0.010895236)
(0 0 1)
(0.11195779 -0.99365384 0.010839586)
(0 -0 1)
(-0.5937847 -0.80455035 0.010884103)
(-0 0 1)
(-0.18590098 0.98250916 0.01079748)
(0 0 1)
(0.94382616 0.33025901 0.011007962)
(0 0 1)
(-0.33025976 -0.94382832 0.010798159)
(0 0 1)
(0.39986893 -0.91650847 0.010819515)
(0 0 1)
(0.91650874 -0.39986905 0.010791842)
(-0 0 1)
(-0.88406249 0.4672404 0.010951133)
(0 0 1)
(0.99924394 0.037389072 0.010658876)
(-0 0 1)
(-0.037389017 0.99924245 0.010797429)
(0 0 1)
(0.5319998 0.84667306 0.010997769)
(0 0 1)
(0.70706556 -0.70706556 0.010798086)
(0 -0 1)
(-0.91650756 -0.39986853 0.010911343)
(0 0 1)
(0.11195784 0.99365429 0.010797951)
(0 0 1)
(0.25880403 -0.96586914 0.010829628)
(0 -0 1)
(-0.8466749 -0.53200096 0.010797826)
(0 0 1)
(0.39986817 0.91650672 0.010994586)
(0 -0 1)
(-0.65224883 -0.75792673 0.010887223)
(0 -0 1)
(-0.94382832 -0.33025976 0.010798159)
(0 0 1)
(0.99365233 -0.11195762 0.0109788)
(0 0 1)
(-0.94382681 0.33025923 0.010945311)
(0 0 1)
(0.65224803 0.7579258 0.010999338)
(0 0 1)
(0.96586946 -0.25880412 0.010798654)
(-0.40621822 -0.6289486 -0.66288039)
(0.54247339 0.83991279 0.016404947)
(0.74324766 -0.11202681 -0.65957024)
(-0.98878491 0.14903567 0.0096319619)
(0.74324766 0.11202681 -0.65957024)
(-0.9887233 -0.14902639 0.014743693)
(-0.20376451 -0.72422101 -0.65877458)
(0.27081277 0.96252435 0.01439844)
(-0.056330469 0.75167697 -0.65712146)
(0.074722436 -0.99710042 0.014398508)
(0.09383963 0.74882204 -0.65609425)
(-0.12433366 -0.99215852 0.012752153)
(0.37698722 0.65296095 -0.65690382)
(-0.49997034 -0.86597393 0.010900655)
(0.37722798 -0.65337796 -0.65635074)
(-0.49996644 0.86596718 0.01159356)
(-0.3442344 0.67145439 -0.65624057)
(0.45611338 -0.88968253 0.020629814)
(-0.34450958 -0.67199115 -0.65554637)
(0.45618286 0.88981807 0.01099988)
(-0.74018175 -0.14963123 -0.6555467)
(0.98010342 0.19813252 0.011865901)
(0.018839966 -0.75546492 -0.65491817)
(-0.024928806 0.99962166 0.011622546)
(-0.62412942 0.42552438 -0.65527969)
(0.82615308 -0.56326182 0.014394436)
(0.018827171 0.75495185 -0.65550991)
(-0.024927906 -0.99958556 0.014398111)
(0.68054619 -0.32773385 -0.65532237)
(-0.90080288 0.43380391 0.019192155)
(0.4993204 -0.56579837 -0.65616411)
(-0.66163404 0.74972196 0.012544879)
(0.50025737 0.56686009 -0.65453205)
(-0.66161752 -0.74970324 0.014398152)
(-0.13105874 0.74327192 -0.65602627)
(0.17363906 -0.98475717 0.010138487)
(-0.13104415 -0.74318916 -0.65612293)
(0.1736374 0.98474779 0.011038603)
(-0.75515489 -0 -0.65554641)
(0.99992305 -0 0.012405371)
(0.16795867 0.73587491 -0.65595579)
(-0.22248228 -0.97475844 0.018644618)
(-0.69585714 0.29332867 -0.65554644)
(0.92138061 -0.38839487 0.014394493)
(-0.52631803 0.5396074 -0.65712494)
(0.69816437 -0.7157928 0.014393868)
(0.16803774 -0.73622134 -0.65554669)
(-0.22248295 0.97476134 0.018484378)
(-0.69590171 -0.29334746 -0.65549071)
(0.92137148 0.38839103 0.015066984)
(-0.52727673 -0.54059031 -0.65554662)
(0.69811568 0.71574288 0.018617797)
(0.67902868 0.32700306 -0.65725874)
(-0.90087547 -0.43383887 0.014394973)
(0.60191526 -0.45593348 -0.65560863)
(-0.79703634 0.60373208 0.015512986)
(-0.62402988 -0.42545651 -0.65541854)
(0.82615308 0.56326182 0.014394439)
(0.60170582 0.45577483 -0.65591114)
(-0.79699388 -0.60369992 0.018632154)
(0.73180375 0.18633993 -0.65554611)
(-0.96902121 -0.24674286 0.010764049)
(0.73234566 -0.18647792 -0.65490138)
(-0.9689118 0.246715 0.018483368)
(-0.74005239 0.14960508 -0.6556987)
(0.98007077 -0.19812592 0.014401893)
(0.6448401 -0.39405326 -0.65490707)
(-0.85325508 0.5214129 0.0091848648)
(0.093872578 -0.74908496 -0.65578934)
(-0.12432362 0.99207839 0.018002679)
(0.64448009 0.39383327 -0.6553936)
(-0.85322538 -0.52139475 0.012408583)
(-0.57858411 0.48548922 -0.6553935)
(0.76595787 -0.64271432 0.01506103)
(-0.72222826 -0.22277777 -0.65479494)
(0.95547386 0.29472447 0.014394114)
(-0.66402047 -0.36160618 -0.65445992)
(0.87813053 0.47820427 0.014402861)
(-0.74939394 -0.07498773 -0.6578644)
(0.99492775 0.099556948 0.014393995)
(0.55371428 -0.51377144 -0.65531627)
(-0.73293663 0.68006537 0.017748077)
(0.71015655 -0.25847601 -0.65488001)
(-0.93959514 0.34198489 0.014398487)
(0.55405628 0.51408877 -0.65477811)
(-0.73299906 -0.6801233 0.012028539)
(-0.66338202 0.36125849 -0.65529886)
(0.87816055 -0.47822062 0.011793874)
(-0.72153332 0.22256341 -0.65563343)
(0.95549798 -0.29473191 0.012518154)
(-0.57929975 -0.48608972 -0.65431535)
(0.76598533 0.64273736 0.012456697)
(-0.056437626 -0.75310688 -0.65547298)
(0.074722436 0.99710042 0.014398508)
(-0.47056865 -0.59007475 -0.6560312)
(0.62344172 0.78177162 0.012391378)
(-0.20405531 0.72525457 -0.65754638)
(0.27080034 -0.96248017 0.017294521)
(0.24039599 -0.71550213 -0.655947)
(-0.31844872 0.94781421 0.015447642)
(-0.27638439 -0.70421591 -0.65398136)
(0.36530317 0.93077724 0.014398563)
(0.24037006 0.71542494 -0.6560407)
(-0.31846108 -0.947851 0.012689558)
(-0.27612154 0.70354618 -0.65481269)
(0.36530317 -0.93077724 0.014398563)
(0.31081554 -0.6888379 -0.65490155)
(-0.41124452 0.91141135 0.01439793)