/*--------------------------------*- C++ -*----------------------------------*\
| =========                 |                                                 |
| \\      /  F ield         | OpenFOAM: The Open Source CFD Toolbox           |
|  \\    /   O peration     | Version:  2312                                  |
|   \\  /    A nd           | Website:  www.openfoam.com                      |
|    \\/     M anipulation  |                                                 |
\*---------------------------------------------------------------------------*/
FoamFile
{
    version     2.0;
    format      ascii;
    arch        "LSB;label=32;scalar=64";
    class       featureEdgeMesh;
    location    "constant/triSurface";
    object      modeldomain.eMesh;
}
// * * * * * * * * * * * * * * * * * * * * * * * * * * * * * * * * * * * * * //


// points:

323
(
(-0.058951035 -0.19111456 0)
(-0.073068202 -0.18617475 0)
(-0.029808452 -0.19776617 0)
(-0.044504188 -0.19498558 0)
(0.12469796 -0.1563663 0)
(0.11266401 -0.16524775 0)
(0.058951035 0.19111456 0)
(0.073068202 0.18617475 0)
(0.19944076 0.014946018 0)
(0.2 -4.8985871e-17 0)
(-0.086776748 -0.18019377 0)
(-0.014946018 -0.19944076 0)
(0.18617475 -0.073068202 0)
(0.18019377 -0.086776748 0)
(0.1 -0.17320508 0)
(0.19944076 -0.014946018 0)
(0.19776617 -0.029808452 0)
(-0.1563663 0.12469796 0)
(-0.14661038 0.13603455 0)
(-0.18019377 0.086776748 0)
(-0.17320508 0.1 0)
(0.17320508 -0.1 0)
(-0.1 -0.17320508 0)
(0.13603455 -0.14661038 0)
(0.086776748 0.18019377 0)
(-0.2 5.5739998e-16 0)
(-0.19944076 0.014946018 0)
(-0.044504188 0.19498558 0)
(-0.029808452 0.19776617 0)
(0.16524775 -0.11266401 0)
(0.1563663 -0.12469796 0)
(0.19776617 0.029808452 0)
(0.19498558 -0.044504188 0)
(0.19111456 -0.058951035 0)
(0.029808452 0.19776617 0)
(0.044504188 0.19498558 0)
(0.029808452 -0.19776617 0)
(0.014946018 -0.19944076 0)
(-0.13603455 0.14661038 0)
(-0.12469796 0.1563663 0)
(0.16524775 0.11266401 0)
(0.17320508 0.1 0)
(2.3429106e-16 0.2 0)
(0.014946018 0.19944076 0)
(-0.073068202 0.18617475 0)
(-0.058951035 0.19111456 0)
(-0.12469796 -0.1563663 0)
(-0.13603455 -0.14661038 0)
(0.073068202 -0.18617475 0)
(0.058951035 -0.19111456 0)
(-0.1 0.17320508 0)
(-0.086776748 0.18019377 0)
(-0.18617475 -0.073068202 0)
(-0.19111456 -0.058951035 0)
(0.13603455 0.14661038 0)
(0.14661038 0.13603455 0)
(-0.19776617 -0.029808452 0)
(-0.19944076 -0.014946018 0)
(0.18617475 0.073068202 0)
(0.19111456 0.058951035 0)
(-0.14661038 -0.13603455 0)
(-0.1563663 -0.12469796 0)
(0.11266401 0.16524775 0)
(0.12469796 0.1563663 0)
(-0.19498558 0.044504188 0)
(-0.19111456 0.058951035 0)
(-1.8130963e-15 -0.2 0)
(-0.16524775 -0.11266401 0)
(-0.17320508 -0.1 0)
(-0.16524775 0.11266401 0)
(-0.18617475 0.073068202 0)
(0.18019377 0.086776748 0)
(0.1563663 0.12469796 0)
(0.044504188 -0.19498558 0)
(-0.11266401 -0.16524775 0)
(-0.18019377 -0.086776748 0)
(-0.19776617 0.029808452 0)
(-0.19498558 -0.044504188 0)
(0.14661038 -0.13603455 0)
(0.086776748 -0.18019377 0)
(-0.014946018 0.19944076 0)
(0.1 0.17320508 0)
(0.19498558 0.044504188 0)
(-0.11266401 0.16524775 0)
(-0.0053465604 -0.001801466 0.075000003)
(-0.0056088227 -0.00060999626 0.075000003)
(-0.004834299 -0.0029087011 0.075000003)
(-0.0056088227 0.00060999626 0.075000003)
(-0.0040959911 0.0038799287 0.075000003)
(-0.0031661589 0.0046697352 0.075000003)
(0.0055099917 0.0012128408 0.075000003)
(0.0056418958 -1.3818659e-18 0.075000003)
(0.003652486 0.0043000388 0.075000003)
(0.004491474 0.0034143298 0.075000003)
(0.00030544607 0.0056336215 0.075000003)
(0.001509367 0.0054362486 0.075000003)
(-0.0020882809 0.0052411901 0.075000003)
(-0.00091275718 0.0055675725 0.075000003)
(-0.0053465604 0.001801466 0.075000003)
(-0.004834299 0.0029087011 0.075000003)
(-0.0020882809 -0.0052411901 0.075000003)
(-0.0031661589 -0.0046697352 0.075000003)
(0.004491474 -0.0034143298 0.075000003)
(0.003652486 -0.0043000388 0.075000003)
(-0.0040959911 -0.0038799287 0.075000003)
(0.0055099917 -0.0012128408 0.075000003)
(0.005120446 -0.0023689705 0.075000003)
(0.0026427116 -0.0049846829 0.075000003)
(0.001509367 -0.0054362486 0.075000003)
(0.00030544607 -0.0056336215 0.075000003)
(-0.00091275718 -0.0055675725 0.075000003)
(0.005120446 0.0023689705 0.075000003)
(0.0026427116 0.0049846829 0.075000003)
(0.049008623 -0.0099073071 0.25)
(0.049751539 -0.0049783923 0.25)
(-0.0012465346 -0.049984459 0.25)
(0.0037365046 -0.049860191 0.25)
(0.043911077 0.023912698 0.25)
(0.041311938 0.028166004 0.25)
(0.027127312 0.042001296 0.25)
(0.022810534 0.04449359 0.25)
(0.0086824093 0.049240388 0.25)
(0.0037365046 0.049860191 0.25)
(-0.025 0.043301269 0.25)
(-0.029187184 0.040596899 0.25)
(-0.033084292 0.03748906 0.25)
(-0.036652595 0.034008637 0.25)
(-0.045048442 0.021694187 0.25)
(-0.046984632 0.017101007 0.25)
(-0.049937844 0.0024922942 0.25)
(-0.049937844 -0.0024922942 0.25)
(-0.045048442 -0.021694187 0.25)
(-0.042664543 -0.026071761 0.25)
(-0.049441542 -0.0074521131 0.25)
(-0.048453864 -0.01233787 0.25)
(-0.036652595 -0.034008637 0.25)
(-0.033084292 -0.03748906 0.25)
(-0.029187184 -0.040596899 0.25)
(-0.025 -0.043301269 0.25)
(0.03830222 0.03213938 0.25)
(0.034911841 0.035793342 0.25)
(0.0086824093 -0.049240388 0.25)
(-0.011126047 0.048746396 0.25)
(-0.015924333 0.047396366 0.25)
(0.03117449 0.039091576 0.25)
(-0.049441542 0.0074521131 0.25)
(0.022810534 -0.04449359 0.25)
(0.027127312 -0.042001296 0.25)
(0.046073809 -0.01942174 0.25)
(0.04777864 -0.014737759 0.25)
(-0.042664543 0.026071761 0.25)
(0.013542023 0.048131213 0.25)
(-0.020564355 0.045575291 0.25)
(-0.048453864 0.01233787 0.25)
(-0.039856624 -0.03019022 0.25)
(-0.011126047 -0.048746396 0.25)
(-0.0062171854 -0.04961196 0.25)
(-0.0012465346 0.049984459 0.25)
(-0.0062171854 0.04961196 0.25)
(0.041311938 -0.028166004 0.25)
(0.043911077 -0.023912698 0.25)
(0.046073809 0.01942174 0.25)
(-0.020564355 -0.045575291 0.25)
(-0.015924333 -0.047396366 0.25)
(0.01826705 0.046543688 0.25)
(-0.046984632 -0.017101007 0.25)
(0.013542023 -0.048131213 0.25)
(0.04777864 0.014737759 0.25)
(0.03830222 -0.03213938 0.25)
(0.049008623 0.0099073071 0.25)
(0.01826705 -0.046543688 0.25)
(0.03117449 -0.039091576 0.25)
(0.034911841 -0.035793342 0.25)
(-0.039856624 0.03019022 0.25)
(0.049751539 0.0049783923 0.25)
(0.050000001 -1.2246468e-17 0.25)
(-0.13603455 0.14661038 0.25)
(-0.14661038 0.13603455 0.25)
(0.17320508 0.1 0.25)
(0.16524775 0.11266401 0.25)
(-0.014946018 -0.19944076 0.25)
(-1.8130963e-15 -0.2 0.25)
(0.18617475 0.073068202 0.25)
(0.18019377 0.086776748 0.25)
(-0.044504188 -0.19498558 0.25)
(-0.029808452 -0.19776617 0.25)
(-0.19111456 0.058951035 0.25)
(-0.19498558 0.044504188 0.25)
(0.1 -0.17320508 0.25)
(0.11266401 -0.16524775 0.25)
(0.16524775 -0.11266401 0.25)
(0.17320508 -0.1 0.25)
(-0.058951035 -0.19111456 0.25)
(0.19944076 -0.014946018 0.25)
(0.2 -4.8985871e-17 0.25)
(-0.1 0.17320508 0.25)
(-0.11266401 0.16524775 0.25)
(0.12469796 -0.1563663 0.25)
(0.13603455 -0.14661038 0.25)
(0.014946018 -0.19944076 0.25)
(-0.1563663 0.12469796 0.25)
(0.19498558 -0.044504188 0.25)
(0.19776617 -0.029808452 0.25)
(-0.16524775 -0.11266401 0.25)
(-0.1563663 -0.12469796 0.25)
(0.19944076 0.014946018 0.25)
(0.19776617 0.029808452 0.25)
(0.029808452 -0.19776617 0.25)
(0.044504188 -0.19498558 0.25)
(0.19498558 0.044504188 0.25)
(0.19111456 0.058951035 0.25)
(0.073068202 0.18617475 0.25)
(0.058951035 0.19111456 0.25)
(0.044504188 0.19498558 0.25)
(0.029808452 0.19776617 0.25)
(-0.073068202 0.18617475 0.25)
(-0.086776748 0.18019377 0.25)
(-0.12469796 0.1563663 0.25)
(0.1563663 0.12469796 0.25)
(-0.014946018 0.19944076 0.25)
(-0.029808452 0.19776617 0.25)
(-0.19944076 0.014946018 0.25)
(-0.2 5.5739998e-16 0.25)
(0.18617475 -0.073068202 0.25)
(0.19111456 -0.058951035 0.25)
(0.014946018 0.19944076 0.25)
(2.3429106e-16 0.2 0.25)
(0.058951035 -0.19111456 0.25)
(0.073068202 -0.18617475 0.25)
(0.14661038 0.13603455 0.25)
(0.13603455 0.14661038 0.25)
(-0.19944076 -0.014946018 0.25)
(-0.19776617 -0.029808452 0.25)
(0.1 0.17320508 0.25)
(0.086776748 0.18019377 0.25)
(-0.19776617 0.029808452 0.25)
(0.12469796 0.1563663 0.25)
(0.11266401 0.16524775 0.25)
(-0.14661038 -0.13603455 0.25)
(-0.13603455 -0.14661038 0.25)
(-0.18019377 0.086776748 0.25)
(-0.18617475 0.073068202 0.25)
(-0.18019377 -0.086776748 0.25)
(-0.17320508 -0.1 0.25)
(-0.19498558 -0.044504188 0.25)
(-0.19111456 -0.058951035 0.25)
(0.14661038 -0.13603455 0.25)
(0.1563663 -0.12469796 0.25)
(-0.044504188 0.19498558 0.25)
(-0.058951035 0.19111456 0.25)
(-0.16524775 0.11266401 0.25)
(-0.17320508 0.1 0.25)
(-0.086776748 -0.18019377 0.25)
(-0.073068202 -0.18617475 0.25)
(-0.11266401 -0.16524775 0.25)
(-0.1 -0.17320508 0.25)
(0.086776748 -0.18019377 0.25)
(0.18019377 -0.086776748 0.25)
(-0.12469796 -0.1563663 0.25)
(-0.18617475 -0.073068202 0.25)
(-0.025 -0.043301269 0.125)
(-0.029187184 -0.040596899 0.125)
(0.049751539 -0.0049783923 0.125)
(0.049008623 -0.0099073071 0.125)
(0.049008623 0.0099073071 0.125)
(0.049751539 0.0049783923 0.125)
(-0.011126047 -0.048746396 0.125)
(-0.015924333 -0.047396366 0.125)
(-0.0062171854 0.04961196 0.125)
(-0.0012465346 0.049984459 0.125)
(0.0037365046 0.049860191 0.125)
(0.0086824093 0.049240388 0.125)
(0.022810534 0.04449359 0.125)
(0.027127312 0.042001296 0.125)
(0.027127312 -0.042001296 0.125)
(0.022810534 -0.04449359 0.125)
(-0.025 0.043301269 0.125)
(-0.020564355 0.045575291 0.125)
(-0.020564355 -0.045575291 0.125)
(-0.048453864 -0.01233787 0.125)
(-0.049441542 -0.0074521131 0.125)
(0.0037365046 -0.049860191 0.125)
(-0.0012465346 -0.049984459 0.125)
(-0.042664543 0.026071761 0.125)
(-0.039856624 0.03019022 0.125)
(0.046073809 -0.01942174 0.125)
(0.043911077 -0.023912698 0.125)
(0.034911841 -0.035793342 0.125)
(0.03117449 -0.039091576 0.125)
(0.03117449 0.039091576 0.125)
(0.034911841 0.035793342 0.125)
(-0.011126047 0.048746396 0.125)
(-0.0062171854 -0.04961196 0.125)
(-0.049937844 -0.0024922942 0.125)
(-0.049937844 0.0024922942 0.125)
(0.013542023 0.048131213 0.125)
(-0.046984632 0.017101007 0.125)
(-0.045048442 0.021694187 0.125)
(-0.036652595 0.034008637 0.125)
(-0.033084292 0.03748906 0.125)
(0.013542023 -0.048131213 0.125)
(0.0086824093 -0.049240388 0.125)
(-0.045048442 -0.021694187 0.125)
(-0.046984632 -0.017101007 0.125)
(-0.033084292 -0.03748906 0.125)
(-0.036652595 -0.034008637 0.125)
(0.043911077 0.023912698 0.125)
(0.046073809 0.01942174 0.125)
(0.041311938 -0.028166004 0.125)
(0.03830222 -0.03213938 0.125)
(-0.039856624 -0.03019022 0.125)
(-0.042664543 -0.026071761 0.125)
(0.03830222 0.03213938 0.125)
(0.041311938 0.028166004 0.125)
(0.04777864 0.014737759 0.125)
(0.04777864 -0.014737759 0.125)
(-0.049441542 0.0074521131 0.125)
(-0.048453864 0.01233787 0.125)
(-0.015924333 0.047396366 0.125)
(0.01826705 -0.046543688 0.125)
(0.01826705 0.046543688 0.125)
(0.050000001 -1.2246468e-17 0.125)
(-0.029187184 0.040596899 0.125)
)


// edges:

323
(
(0 1)
(2 3)
(4 5)
(6 7)
(8 9)
(1 10)
(11 2)
(12 13)
(5 14)
(15 16)
(17 18)
(3 0)
(19 20)
(13 21)
(10 22)
(23 4)
(7 24)
(25 26)
(27 28)
(29 30)
(31 8)
(32 33)
(34 35)
(36 37)
(38 39)
(40 41)
(42 43)
(44 45)
(46 47)
(48 49)
(50 51)
(52 53)
(54 55)
(56 57)
(58 59)
(60 61)
(62 63)
(64 65)
(66 11)
(67 68)
(69 17)
(65 70)
(61 67)
(41 71)
(72 40)
(18 38)
(37 66)
(43 34)
(73 36)
(22 74)
(68 75)
(74 46)
(47 60)
(49 73)
(70 19)
(57 25)
(76 64)
(53 77)
(78 23)
(75 52)
(14 79)
(33 12)
(80 42)
(24 81)
(9 15)
(30 78)
(77 56)
(20 69)
(45 27)
(51 44)
(63 54)
(79 48)
(59 82)
(39 83)
(55 72)
(71 58)
(28 80)
(82 31)
(26 76)
(16 32)
(81 62)
(21 29)
(83 50)
(35 6)
(84 85)
(86 84)
(85 87)
(88 89)
(90 91)
(92 93)
(94 95)
(96 97)
(98 99)
(100 101)
(102 103)
(104 86)
(105 106)
(107 108)
(109 110)
(111 90)
(89 96)
(99 88)
(112 92)
(87 98)
(101 104)
(103 107)
(97 94)
(91 105)
(106 102)
(110 100)
(93 111)
(108 109)
(95 112)
(113 114)
(115 116)
(117 118)
(119 120)
(121 122)
(123 124)
(125 126)
(127 128)
(129 130)
(131 132)
(133 134)
(135 136)
(137 138)
(139 140)
(124 125)
(116 141)
(142 143)
(144 119)
(145 129)
(136 137)
(146 147)
(148 149)
(150 127)
(151 121)
(152 123)
(128 153)
(154 135)
(155 156)
(130 133)
(157 158)
(159 160)
(161 117)
(162 163)
(120 164)
(165 131)
(132 154)
(143 152)
(153 145)
(164 151)
(141 166)
(167 161)
(168 159)
(169 167)
(166 170)
(163 155)
(171 172)
(126 173)
(172 168)
(158 142)
(138 162)
(173 150)
(122 157)
(174 169)
(114 175)
(175 174)
(140 144)
(170 146)
(134 165)
(160 148)
(149 113)
(156 115)
(147 171)
(118 139)
(176 177)
(178 179)
(180 181)
(182 183)
(184 185)
(186 187)
(188 189)
(190 191)
(192 184)
(193 194)
(195 196)
(197 198)
(181 199)
(177 200)
(201 202)
(203 204)
(205 206)
(207 208)
(209 210)
(211 212)
(213 214)
(215 216)
(217 176)
(179 218)
(219 220)
(221 222)
(223 224)
(225 226)
(227 228)
(229 230)
(231 232)
(233 234)
(187 235)
(236 237)
(183 178)
(238 239)
(240 241)
(242 243)
(244 245)
(246 247)
(248 249)
(250 251)
(185 180)
(252 253)
(254 255)
(256 188)
(235 221)
(191 257)
(249 215)
(232 244)
(200 250)
(255 252)
(212 213)
(189 197)
(218 229)
(247 190)
(216 195)
(196 217)
(206 209)
(222 231)
(204 238)
(199 207)
(258 254)
(220 248)
(210 182)
(253 192)
(228 256)
(257 223)
(251 240)
(194 205)
(226 219)
(237 233)
(198 246)
(259 242)
(214 225)
(208 227)
(243 203)
(234 211)
(239 258)
(245 259)
(202 193)
(241 186)
(230 236)
(224 201)
(260 261)
(262 263)
(264 265)
(266 267)
(268 269)
(270 271)
(272 273)
(274 275)
(276 277)
(278 260)
(279 280)
(281 282)
(283 284)
(269 270)
(285 286)
(287 288)
(289 290)
(291 268)
(292 266)
(293 294)
(271 295)
(296 297)
(298 299)
(300 301)
(302 303)
(304 305)
(306 307)
(308 309)
(310 311)
(312 313)
(314 264)
(263 315)
(316 317)
(286 308)
(301 281)
(313 306)
(284 298)
(303 279)
(311 302)
(280 293)
(309 287)
(315 285)
(290 312)
(297 283)
(317 296)
(305 310)
(282 292)
(261 304)
(318 291)
(319 300)
(267 278)
(295 320)
(277 318)
(275 319)
(273 289)
(320 272)
(307 314)
(294 316)
(265 321)
(299 322)
(321 262)
(322 276)
(288 274)
)

// * * * * * * * * * * * * * * * * * * * * * * * * * * * * * * * * * * * * * //


// ************************************************************************* //
